output/compact_ny_2025/electrical_constant_total_diagnostic/S6_2019_LOW_TOTAL_EAST_PUBLIC/audit_branch.csv
branch_row,device_key,from_bus,to_bus,online,rate_a_mva,from_mva,to_mva,from_overload_mva,to_overload_mva,angle_deg,angle_min_deg,angle_max_deg,angle_below_min_deg,angle_above_max_deg,violated,invalid_limit_bounds,stored_terminal_flow_error_mva,stored_terminal_flow_inconsistent
1,NPCC_S7:BRANCH_ROW:33,37,38,1,2500,85.7138206378967,97.4982359766584,0,0,-0.811703846550406,-360,360,0,0,0,0,5.72857867687912e-14,0
2,NPCC_S7:BRANCH_ROW:34,37,39,1,3388,505.39613872275,513.909086060388,0,0,1.9768623258585,-360,360,0,0,0,0,1.72882509170285e-13,0
3,NPCC_S7:BRANCH_ROW:35,37,40,1,2500,101.600791078149,103.501345216416,0,0,-0.297365490508409,-360,360,0,0,0,0,4.61852778244065e-14,0
4,NPCC_S7:BRANCH_ROW:36,37,43,1,3745.98196383403,414.172963118382,330.762560995505,0,0,-2.16615782646972,-360,360,0,0,0,0,8.98773367955636e-14,0
5,NPCC_S7:BRANCH_ROW:37,38,69,1,1216,33.954203348537,97.017361620689,0,0,-0.886674386790143,-360,360,0,0,0,0,3.42905892467049e-13,0
6,NPCC_S7:BRANCH_ROW:38,39,73,1,2500,405.831055469969,400.228224986478,0,0,4.4720753965186,-360,360,0,0,0,0,1.72882509170285e-13,0
7,NPCC_S7:BRANCH_ROW:39,39,73,1,2500,405.831055469969,400.228224986478,0,0,4.4720753965186,-360,360,0,0,0,0,1.72882509170285e-13,0
8,NPCC_S7:BRANCH_ROW:40,40,44,1,1328.76341358641,131.203098370877,107.096410173345,0,0,-1.61896018923284,-360,360,0,0,0,0,2.00971834711523e-14,0
9,NPCC_S7:BRANCH_ROW:41,41,42,1,2500,458.045152777584,457.313033830511,0,0,-2.90875086363992,-360,360,0,0,0,0,1.33944373237093e-12,0
10,NPCC_S7:BRANCH_ROW:42,41,45,1,314.254622579561,38.9182426934324,30.3186960006452,0,0,2.11476263733565,-360,360,0,0,0,0,4.62897767742141e-14,0
11,NPCC_S7:BRANCH_ROW:43,43,44,1,2500,306.498379326653,296.927620616605,0,0,0.249832146728469,-360,360,0,0,0,0,1.4210854715202e-14,0
12,NPCC_S7:BRANCH_ROW:44,43,50,1,3463.47124449306,274.055294273906,244.673565414045,0,0,0.0528809747378858,-360,360,0,0,0,0,5.6843418860808e-14,0
13,NPCC_S7:BRANCH_ROW:45,43,50,1,3463.47124449306,274.055294273906,244.673565414045,0,0,0.0528809747378858,-360,360,0,0,0,0,5.6843418860808e-14,0
14,NPCC_S7:BRANCH_ROW:46,44,45,1,2500,373.186116158094,367.149018549472,0,0,4.30278115290279,-360,360,0,0,0,0,1.70530256582424e-13,0
15,NPCC_S7:BRANCH_ROW:47,44,48,1,6896.14528055676,297.356685621399,301.086316280485,0,0,-19.4287523968326,-360,360,0,0,0,0,0,0
16,NPCC_S7:BRANCH_ROW:48,45,46,1,2040.85471944324,78.2446266540221,79.4263712427043,0,0,-18.7194129240077,-360,360,0,0,0,0,2.8421709430404e-14,0
17,NPCC_S7:BRANCH_ROW:49,45,51,1,489.56239109923,60.862934894631,59.7712703140045,0,0,-1.06243443049664,-360,360,0,0,0,0,2.24693341988909e-14,0
18,NPCC_S7:BRANCH_ROW:50,45,71,1,166.495119914644,16.1549871637692,23.5626786207675,0,0,-5.56715440380295,-360,360,0,0,0,0,5.02429586778808e-15,0
19,NPCC_S7:BRANCH_ROW:51,46,47,1,2500,103.522728529714,104.973810169944,0,0,-10.0374857200121,-360,360,0,0,0,0,7.105427357601e-15,0
20,NPCC_S7:BRANCH_ROW:52,46,49,1,2500,8.24677654601367,7.34746484111448,0,0,3.14994291197526,-360,360,0,0,0,0,9.93013661298909e-16,0
21,NPCC_S7:BRANCH_ROW:53,47,48,1,2500,235.517483920669,243.835038329726,0,0,5.02536509428437,-360,360,0,0,0,0,0,0
22,NPCC_S7:BRANCH_ROW:54,50,51,1,2500,350.626256841441,350.626256841441,0,0,3.43729789439674,-360,360,0,0,0,0,5.6843418860808e-14,0
23,NPCC_S7:BRANCH_ROW:55,50,52,1,2858.06690137886,551.439159606263,611.925668920236,0,0,2.09441827351697,-360,360,0,0,0,0,1.17185710042169e-13,0
24,NPCC_S7:BRANCH_ROW:56,51,53,1,290.964700741948,102.621416875902,95.9223122725588,0,0,6.96998662290943,-360,360,0,0,0,0,1.58882185807825e-14,0
25,NPCC_S7:BRANCH_ROW:57,51,72,1,2500,328.271008670629,340.164132100775,0,0,-1.59294829704213,-360,360,0,0,0,0,1.4210854715202e-14,0
26,NPCC_S7:BRANCH_ROW:58,52,53,1,2500,400.191357602888,367.193163483417,0,0,8.31286624378921,-360,360,0,0,0,0,2.8421709430404e-14,0
27,NPCC_S7:BRANCH_ROW:59,53,55,1,997.983883346124,76.5754851477154,83.10769777859,0,0,-6.26175756123368,-360,360,0,0,0,0,1.46482137552712e-14,0
28,NPCC_S7:BRANCH_ROW:60,53,65,1,785.968397879188,231.11080876345,276.978843424603,0,0,5.58709723535195,-360,360,0,0,0,0,3.5527136788005e-15,0
29,NPCC_S7:BRANCH_ROW:61,54,56,1,789.941803,744.87420083538,789.941708572392,0,0,5.26407216851074,-360,360,0,0,0,0,9.33709999180919e-13,0
30,NPCC_S7:BRANCH_ROW:62,54,62,1,789.941803,163.577697721684,168.967525231712,0,0,6.00237343570176,-360,360,0,0,0,0,4.49386683977818e-14,0
31,NPCC_S7:BRANCH_ROW:65,55,57,1,789.941803,472.210074632788,574.977834366439,0,0,4.23276339456585,-360,360,0,0,0,0,2.8421709430404e-14,0
32,NPCC_S7:BRANCH_ROW:66,55,59,1,789.941803,125.617820641164,135.360378470181,0,0,3.94795435285001,-360,360,0,0,0,0,4.01943669423046e-14,0
33,NPCC_S7:BRANCH_ROW:67,56,58,1,2500,278.162326551905,278.514795862912,0,0,1.77801936845005,-360,360,0,0,0,0,4.01943669423046e-14,0
34,NPCC_S7:BRANCH_ROW:68,57,59,1,2500,165.47399304024,152.700059291771,0,0,-0.284809041715837,-360,360,0,0,0,0,7.105427357601e-15,0
35,NPCC_S7:BRANCH_ROW:69,58,60,1,2500,324.416936277358,328.439591268051,0,0,0.823353504158707,-360,360,0,0,0,0,8.54787636245066e-13,0
36,NPCC_S7:BRANCH_ROW:70,58,62,1,2500,136.118225101604,135.942528373147,0,0,-1.03971810125903,-360,360,0,0,0,0,7.15640357612652e-13,0
37,NPCC_S7:BRANCH_ROW:71,59,61,1,2500,70.208201258974,70.9794792061889,0,0,1.05886121030783,-360,360,0,0,0,0,1.13742335326934e-13,0
38,NPCC_S7:BRANCH_ROW:73,62,63,1,620,35.7411705694023,32.1660828876281,0,0,1.62023506630614,-360,360,0,0,0,0,1.72449052245143e-13,0
39,NPCC_S7:BRANCH_ROW:74,63,64,1,2500,135.72117522718,139.830533943102,0,0,3.26414314856272,-360,360,0,0,0,0,0,0
40,NPCC_S7:BRANCH_ROW:75,63,67,1,2500,106.681032910526,110.353357408344,0,0,-5.76894833666833,-360,360,0,0,0,0,2.8421709430404e-14,0
41,NPCC_S7:BRANCH_ROW:76,64,65,1,2500,154.953887055316,163.786318880202,0,0,5.15604504874123,-360,360,0,0,0,0,2.92964275105423e-14,0
42,NPCC_S7:BRANCH_ROW:77,64,68,1,2500,67.5526125618638,69.9133123470136,0,0,-8.91250961260242,-360,360,0,0,0,0,1.00485917355762e-14,0
43,NPCC_S7:BRANCH_ROW:78,66,67,1,2500,55.1468726841979,54.8660820228459,0,0,0.782874324506925,-360,360,0,0,0,0,2.1316282072803e-14,0
44,NPCC_S7:BRANCH_ROW:79,66,69,1,2500,39.7078408113275,34.7244755024662,0,0,-0.607472275787656,-360,360,0,0,0,0,6.68112254782768e-13,0
45,NPCC_S7:BRANCH_ROW:81,67,68,1,2500,58.9517650644248,56.990748981517,0,0,0.120581872628626,-360,360,0,0,0,0,1.02140518265514e-14,0
46,NPCC_S7:BRANCH_ROW:82,67,70,1,2500,42.2654204037218,47.5151657084993,0,0,-1.63346241172381,-360,360,0,0,0,0,2.16103136462856e-14,0
47,NPCC_S7:BRANCH_ROW:84,68,71,1,2500,16.491095572982,19.3451866717989,0,0,-2.99324917022406,-360,360,0,0,0,0,1.98602732259782e-15,0
48,NPCC_S7:BRANCH_ROW:85,69,71,1,2500,113.796096095414,109.099654200696,0,0,-1.48232069730086,-360,360,0,0,0,0,3.41060513164848e-13,0
49,NPCC_S7:BRANCH_ROW:86,70,71,1,2500,47.5151657084993,46.6785635412534,0,0,-1.23920488587162,-360,360,0,0,0,0,7.105427357601e-15,0
50,NPCC_S7:BRANCH_ROW:87,71,72,1,2500,874.06322870332,991.695403763713,0,0,2.91177167626418,-360,360,0,0,0,0,7.105427357601e-15,0
51,NPCC_S7:BRANCH_ROW:88,73,74,0,1599.84337349398,0,0,0,0,4.13903503630329,-360,360,0,0,0,0,0,0
52,NPCC_S7:BRANCH_ROW:89,73,74,0,1599.84337349398,0,0,0,0,4.13903503630329,-360,360,0,0,0,0,0,0
53,NPCC_S7:BRANCH_ROW:90,74,77,1,2500,104.965688203149,106.822870043881,0,0,-0.309408696913124,-360,360,0,0,0,0,6.57482436485288e-13,0
54,NPCC_S7:BRANCH_ROW:91,74,78,1,2889.50495049505,422.494219272631,424.728186344496,0,0,1.27985241977971,-360,360,0,0,0,0,6.44521405231931e-13,0
55,NPCC_S7:BRANCH_ROW:92,74,78,1,2889.50495049505,422.494219272631,424.728186344496,0,0,1.27985241977971,-360,360,0,0,0,0,6.44521405231931e-13,0
56,NPCC_S7:BRANCH_ROW:94,76,77,0,4611.31325301205,0,0,0,0,0.623260502363619,-360,360,0,0,0,0,0,0
57,NPCC_S7:BRANCH_ROW:95,78,79,1,908.848753535103,307.274326555627,307.274335162073,0,0,3.32659388734662,-360,360,0,0,0,0,1.33226762955019e-15,0
58,NPCC_S7:BRANCH_ROW:96,78,80,1,984.654731457801,232.283039654425,222.889952123203,0,0,-1.89619246157133,-360,360,0,0,0,0,3.17764371615651e-14,0
59,NPCC_S7:BRANCH_ROW:97,78,81,1,503.818330764024,138.95372834766,142.653238048482,0,0,-2.21466240583713,-360,360,0,0,0,0,1.00485917355762e-13,0
60,NPCC_S7:BRANCH_ROW:98,78,82,1,451.473569126203,228.76299768259,231.297919346499,0,0,4.91835602212805,-360,360,0,0,0,0,3.25998989494407e-13,0
61,NPCC_S7:BRANCH_ROW:219,40,41,1,2500,223.113091085334,214.342985919393,0,0,0.569058326334301,-360,360,0,0,0,0,6.57549623000436e-13,0
62,NPCC_S7:BRANCH_ROW:220,49,48,1,2500,78.2086925219998,80.9707202686308,0,0,-8.16206353770298,-360,360,0,0,0,0,1.46482137552712e-14,0
63,NPCC_S7:BRANCH_ROW:222,54,52,1,4583.01611665388,339.370400514064,369.868273209538,0,0,2.14283322017068,-360,360,0,0,0,0,6.84485404394326e-13,0
64,NPCC_S7:BRANCH_ROW:223,54,55,1,2500,455.978624680504,455.978624680503,0,0,4.19394190272621,-360,360,0,0,0,0,1.28963506540458e-12,0
65,NPCC_S7:BRANCH_ROW:224,56,57,1,2500,101.086703001503,115.586229115659,0,0,3.16263312878132,-360,360,0,0,0,0,0,0
66,NPCC_S7:BRANCH_ROW:225,58,59,1,2500,204.570229940368,204.959179575015,0,0,1.09980471861543,-360,360,0,0,0,0,5.6843418860808e-14,0
67,NPCC_S7:BRANCH_ROW:226,60,61,1,2500,44.0611496960521,44.0611497076306,0,0,1.33531242476456,-360,360,0,0,0,0,4.06122192546573e-13,0
68,NPCC_S7:BRANCH_ROW:227,75,76,1,2500,12.1590342274036,12.1588609095247,0,0,0.0630003801408261,-360,360,0,0,0,0,3.20144635252357e-13,0
69,NPCC_S7:BRANCH_ROW:234,38,39,1,1216,231.625601574582,238.886796037879,0,0,2.78856617240891,-360,360,0,0,0,0,2.8421709430404e-14,0
70,NPCC_S7:BRANCH_ROW:235,73,9002,0,2432,0,0,0,0,2.15162288792288,-360,360,0,0,0,0,0,0
71,NPCC_S7:BRANCH_ROW:236,9002,74,0,2432,0,0,0,0,1.98741214838041,-360,360,0,0,0,0,0,0
72,NPCC_S7:BRANCH_ROW:237,74,78,1,866.851485148515,128.093448645962,127.159898900272,0,0,1.27985241977971,-360,360,0,0,0,0,1.48365678980306e-13,0
73,NPCC_S7:BRANCH_ROW:238,77,78,1,650.138613861386,115.760016054977,115.067950003728,0,0,1.58926111669284,-360,360,0,0,0,0,3.5527136788005e-15,0
74,NPCC_S7:BRANCH_ROW:239,78,81,1,1158.78216075726,319.072200190968,327.567191393477,0,0,-2.21466240583713,-360,360,0,0,0,0,3.51557130126508e-13,0
75,NPCC_S7:BRANCH_ROW:240,78,79,1,1390.53859290871,469.375968028152,469.375981174903,0,0,3.32659388734662,-360,360,0,0,0,0,1.1403325463067e-13,0
76,NPCC_S7:BRANCH_ROW:241,78,82,1,1390.53859290871,703.41785422483,711.212424043893,0,0,4.91835602212805,-360,360,0,0,0,0,1.26883118614101e-12,0
77,NPCC_S7:BRANCH_ROW:242,78,9003,1,2865.3452685422,389.223685343597,419.740122446923,0,0,-3.08332398863839,-360,360,0,0,0,0,1.53055589383215e-13,0
78,NPCC_S7:BRANCH_ROW:243,9003,80,1,5000,343.971130498012,368.032778356039,0,0,1.18713152706706,-360,360,0,0,0,0,1.4210854715202e-13,0
79,NPCC_S7:BRANCH_ROW:244,81,80,1,2950,352.393771894952,396.061406307644,0,0,0.318469944265805,-360,360,0,0,0,0,1.07327275905352e-13,0
80,NPCC_S7:BRANCH_ROW:245,39,9001,1,5000,125.422593027264,123.071909591135,0,0,2.57470100590129,-360,360,0,0,0,0,1.58882185807825e-14,0
81,NPCC_S7:BRANCH_ROW:246,9001,73,1,5000,123.071909591136,121.549930085198,0,0,1.8973743906173,-360,360,0,0,0,0,1.00485917355762e-13,0
82,PERFORM2019:AC:651:858:1,73,858,1,1216,263.460464080915,264.424302392919,0,0,0.911041438699568,-360,360,0,0,0,0,1.32953159904918e-12,0
83,PERFORM2019:AC:651:858:2,73,858,1,1216,263.460396752501,264.424380653284,0,0,0.911041438699568,-360,360,0,0,0,0,1.27504315243736e-12,0
84,PERFORM2019:AC:651:902:1,73,9002,1,1216,263.984578141369,266.503732399783,0,0,2.15162288792288,-360,360,0,0,0,0,1.27804893469045e-12,0
85,PERFORM2019:AC:651:902:2,73,9002,1,1216,263.984510461601,266.503824570792,0,0,2.15162288792288,-360,360,0,0,0,0,1.28504163326719e-12,0
86,PERFORM2019:AC:858:902:1,858,9002,1,1216,264.424263262986,265.980220518679,0,0,1.24058144922331,-360,360,0,0,0,0,2.67707760925e-12,0
87,PERFORM2019:AC:858:902:2,858,9002,1,1216,264.424419783714,265.980036492862,0,0,1.24058144922331,-360,360,0,0,0,0,2.67707760925e-12,0
88,PERFORM2019:AC:897:902:1,9002,74,1,1216,532.482838009304,529.750289810017,0,0,1.98741214838041,-360,360,0,0,0,0,2.68585154117318e-12,0
89,PERFORM2019:AC:897:902:2,9002,74,1,1216,532.48495612617,529.748328780585,0,0,1.98741214838041,-360,360,0,0,0,0,2.63882217958486e-12,0
90,PERFORM2019:AC:774:1519:1,76,774,1,1216,110.728506341847,109.646559503495,0,0,0.211406409792755,-360,360,0,0,0,0,5.29940211684622e-12,0
91,PERFORM2019:AC:774:900:1,774,77,1,1725,109.646559503493,108.283116825936,0,0,0.411854092570865,-360,360,0,0,0,0,6.39685804716849e-13,0
92,PERFORM2019:AC:900:1519:1,76,77,1,1725,109.800867120606,107.322696246278,0,0,0.623260502363619,-360,360,0,0,0,0,1.48885833566228e-14,0
